%%%%%%%%%%%%%%%%%%%%%%%%%%%%%%%%%%%%%%%%%%%%%%%%%%%%%%%%%%%%%%%%%%%%%%%%%%%%%%%%
%                                                                              %
% SU2 configuration file                                                       %
% Case description: 2D Fully Developed Turbulent Channel Flow at Re_tau = 5185 %
% Author: Clark Pederson                                                       %
% Institution: The University of Texas at Austin                               %
% Date: 2018.04.20                                                             %
% File Version 5.0.0                                                           %
%                                                                              %
%%%%%%%%%%%%%%%%%%%%%%%%%%%%%%%%%%%%%%%%%%%%%%%%%%%%%%%%%%%%%%%%%%%%%%%%%%%%%%%%

% ------------- DIRECT, ADJOINT, AND LINEARIZED PROBLEM DEFINITION ------------%
%
% Physical governing equations (EULER, NAVIER_STOKES,
%                               WAVE_EQUATION, HEAT_EQUATION, FEM_ELASTICITY,
%                               POISSON_EQUATION)
PHYSICAL_PROBLEM= NAVIER_STOKES
%
% Specify turbulence model (NONE, SA, SA_NEG, SST, KE)
KIND_TURB_MODEL= KE
%
% Mathematical problem (DIRECT, CONTINUOUS_ADJOINT)
MATH_PROBLEM= DIRECT
%
% Restart solution (NO, YES)
RESTART_SOL= YES

% ----------------------- HYBRID RANS/LES PARAMETERS --------------------------%
%
% Specify Hybrid RANS/LES model (NONE, SA_DES, SA_DDES, SA_ZDES,
%                                SA_EDDES, MODEL_SPLIT)
HYBRID_RANSLES= MODEL_SPLIT
%
% Turn off parts of the hybrid model for testing (RANS_ONLY, FULL_HYBRID)
HYBRID_RANS_LES_TESTING= FULL_HYBRID
%
% Specify the variant of the resolution adequacy indicator for dynamic hybrid
% (RK, RDELTA_FULLP, RDELTA_STRAIN_ONLY, RDELTA_FULLP_VELCON)
HYBRID_RESOLUTION_INDICATOR= RDELTA_FULLP_VELCON
%
% Use turbulent forcing with hybrid RANS/LES (NO, YES) default: NO
HYBRID_FORCING= YES
%
% The subgrid-energy transfer model used for model-split hybrid RANS/LES
% (NONE, M43)
SUBGRID_ENERGY_TRANSFER_MODEL= M43
%
% Use the resolved turbulent stress for model-split hybrid RANS/LES (NO, YES)
USE_RESOLVED_TURB_STRESS= NO
HYBRID_FORCING_PERIODIC_LENGTH = 3.141592653589793238, 0.25, 1.1780972451

% ----------- COMPRESSIBLE AND INCOMPRESSIBLE FREE-STREAM DEFINITION ----------%
%
% Mach number (non-dimensional, based on the free-stream values)
MACH_NUMBER= 0.2
%
% Free-stream temperature (288.15 K by default)
FREESTREAM_TEMPERATURE= 288.15
%
% Reynolds number (non-dimensional, based on the free-stream values)
REYNOLDS_NUMBER=137816.684917
%
% Reynolds length (in meters)
REYNOLDS_LENGTH= 1.0

% --------------------------- VISCOSITY MODEL ---------------------------------%
%
% Viscosity model (SUTHERLAND, CONSTANT_VISCOSITY).
VISCOSITY_MODEL= CONSTANT_VISCOSITY
%
% Molecular Viscosity that would be constant (1.716E-5 by default)
MU_CONSTANT= 0.0001928306713380539

% ----------------------- BODY FORCE DEFINITION -------------------------------%
%
% Apply a body force as a source term (NO, YES)
BODY_FORCE= YES
%
% Vector of body force values (BodyForce_X, BodyForce_Y, BodyForce_Z)
BODY_FORCE_VECTOR= ( 1.0, 0.0, 0.0 )

% -------------------- BOUNDARY CONDITION DEFINITION --------------------------%
%
% Navier-Stokes (no-slip), isothermal wall marker(s) (NONE = no marker)
% Format: ( marker name, constant wall temperature (K), ... )
MARKER_ISOTHERMAL= ( bottom, 288.15 , top, 288.15 )
%
% Periodic boundary marker(s) (NONE = no marker)
% Format: ( periodic marker, donor marker, rotation_center_x, rotation_center_y, 
% rotation_center_z, rotation_angle_x-axis, rotation_angle_y-axis, 
% rotation_angle_z-axis, translation_x, translation_y, translation_z, ... )
MARKER_PERIODIC= ( left, right, 0.0, 0.0, 0.0, 0.0, 0.0, 0.0, 6.28318530717959e+00, 0.0, 0.0 )
%
% Symmetry boundary marker(s) (NONE = no marker)
MARKER_SYM= ( front, back )
%
% Marker(s) of the surface to be plotted or designed
MARKER_PLOTTING= ( bottom )
%
% Marker(s) of the surface where the functional (Cd, Cl, etc.) will be evaluated
MARKER_MONITORING= ( bottom )
%
% Kind of adaptation (needed to create the initial periodic mesh)
KIND_ADAPT= PERIODIC


% ------------- COMMON PARAMETERS DEFINING THE NUMERICAL METHOD ---------------%
%
% Numerical method for spatial gradients (GREEN_GAUSS, LEAST_SQUARES, 
%                                         WEIGHTED_LEAST_SQUARES)
NUM_METHOD_GRAD=GREEN_GAUSS
%
% CFL number (initial value for the adaptive CFL number)
CFL_NUMBER= 1
%
% Adaptive CFL number (NO, YES)
CFL_ADAPT= NO
%
% Parameters of the adaptive CFL number (factor down, factor up, CFL min value,
%                                        CFL max value )
CFL_ADAPT_PARAM= ( 1.5, 0.5, 10.0, 200.0 )
%
% Number of total iterations
EXT_ITER=2

% ------------------------ LINEAR SOLVER DEFINITION ---------------------------%
%
% Linear solver or smoother for implicit formulations (BCGSTAB, FGMRES, SMOOTHER_JACOBI,
%                                                      SMOOTHER_ILU0, SMOOTHER_LUSGS,
%                                                      SMOOTHER_LINELET)
LINEAR_SOLVER= FGMRES
%
% Preconditioner of the Krylov linear solver (ILU0, LU_SGS, LINELET, JACOBI)
LINEAR_SOLVER_PREC= LU_SGS
%
% Minimum error of the linear solver for implicit formulations
LINEAR_SOLVER_ERROR=1E-12
%
% Max number of iterations of the linear solver for the implicit formulation
LINEAR_SOLVER_ITER=50
%
% Error out if linear solver doesn't converge
LINEAR_SOLVER_MAX_ITER_ERROR= NO

% -------------------------- MULTIGRID PARAMETERS -----------------------------%
%
% Multi-Grid Levels (0 = no multi-grid)
MGLEVEL= 0

% -------------------- FLOW NUMERICAL METHOD DEFINITION -----------------------%
%
% Convective numerical method (JST, LAX-FRIEDRICH, CUSP, ROE, AUSM, HLLC,
%                              TURKEL_PREC, MSW)
CONV_NUM_METHOD_FLOW= ROE
%
% Roe Low Dissipation function for Hybrid RANS/LES (NONE, FD, NTS,
%                                                   FD_DUCROS, NTS_DUCROS)
ROE_LOW_DISSIPATION= NONE
%
% Roe-Turkel preconditioning for low Mach number flows (NO, YES)
LOW_MACH_PREC= NO
LOW_MACH_CORR= NO
%
% Monotonic Upwind Scheme for Conservation Laws (TVD) in the flow equations.
%           Required for 2nd order upwind schemes (NO, YES)
MUSCL_FLOW= YES
%
% Slope limiter (NONE, VENKATAKRISHNAN, VENKATAKRISHNAN_WANG,
%                BARTH_JESPERSEN, VAN_ALBADA_EDGE)
SLOPE_LIMITER_FLOW= NONE
%
% Time discretization (RUNGE-KUTTA_EXPLICIT, EULER_IMPLICIT, EULER_EXPLICIT)
TIME_DISCRE_FLOW= EULER_IMPLICIT

% -------------------- TURBULENT NUMERICAL METHOD DEFINITION ------------------%
%
% Convective numerical method (SCALAR_UPWIND)
CONV_NUM_METHOD_TURB= SCALAR_UPWIND
%
% Monotonic Upwind Scheme for Conservation Laws (TVD) in the turbulence equations.
%           Required for 2nd order upwind schemes (NO, YES)
MUSCL_TURB= NO
%
% Time discretization (EULER_IMPLICIT)
TIME_DISCRE_TURB= EULER_IMPLICIT

% --------------------------- CONVERGENCE PARAMETERS --------------------------%
%
% Convergence criteria (CAUCHY, RESIDUAL)
CONV_CRITERIA= RESIDUAL
%
% Residual reduction (order of magnitude with respect to the initial value)
RESIDUAL_REDUCTION= 2
%
% Min value of the residual (log10 of the residual)
RESIDUAL_MINVAL= -14
%
% Start convergence criteria at iteration number
STARTCONV_ITER= 1

% ------------------------- UNSTEADY SIMULATION -------------------------------%
%
% Unsteady simulation (NO, TIME_STEPPING, DUAL_TIME_STEPPING-1ST_ORDER,
%                      DUAL_TIME_STEPPING-2ND_ORDER, HARMONIC_BALANCE)
UNSTEADY_SIMULATION= TIME_STEPPING
%
% Time Step for dual time stepping simulations (s) -- Only used when UNST_CFL_NUMBER = 0.0
UNST_TIMESTEP= 1e-8
%
% Total Physical Time for dual time stepping simulations (s)
UNST_TIME= 2.0
%
% Unsteady Courant-Friedrichs-Lewy number of the finest grid
UNST_CFL_NUMBER= 0
%
% Number of internal iterations (dual time method)
UNST_INT_ITER= 5
%
% Iteration number to begin unsteady restarts
UNST_RESTART_ITER= 1

% ------------------------- INPUT/OUTPUT INFORMATION --------------------------%
%
% Mesh input file
MESH_FILENAME= channel_mesh_100x150x40_periodic.su2
%
% Mesh input file format (SU2, CGNS, NETCDF_ASCII)
MESH_FORMAT= SU2
%
% Restart flow input file
SOLUTION_FLOW_FILENAME=linear_interp.dat
%
% Output file format (PARAVIEW, TECPLOT, SLT)
OUTPUT_FORMAT= TECPLOT_BINARY
%
% Output file convergence history (w/o extension)
CONV_FILENAME= history
%
% Output file restart flow
RESTART_FLOW_FILENAME= restart_flow.dat
%
% Output file flow (w/o extension) variables
VOLUME_FLOW_FILENAME= flow
%
% Writing solution file frequency
WRT_SOL_FREQ= 1
%
% Writing solution file frequency for physical time steps (dual time)
WRT_SOL_FREQ_DUALTIME= 1
%
% Write a surface solution file
WRT_SRF_SOL= NO
%
% Write a surface CSV solution file
WRT_CSV_SOL= NO
%
% Writing convergence history frequency
WRT_CON_FREQ= 1
%
% Writing convergence history frequency (dual time, only written to screen)
WRT_CON_FREQ_DUALTIME= 1
%
% Output residual values in the solution files
WRT_RESIDUALS= NO
%
% Output limiters values in the solution files
WRT_LIMITERS= NO
%
% Output the sharp edges detector
WRT_SHARPEDGES= NO
%
% Output the solution at each surface in the history file
WRT_SURFACE= NO
WRT_SURF_FREQ_DUALTIME= 10000000000
%
% Output the resolution tensor in the solution files
WRT_RESOLUTION_TENSORS= YES
%
% Write binary restart files (YES, NO)
WRT_BINARY_RESTART= YES
%
% Read binary restart files (YES, NO)
READ_BINARY_RESTART= NO

% -------------------- RUNTIME AVERAGING OPTIONS ---------------------------- %
%
% Type of averaging to be performed. (NONE, POINTWISE)
RUNTIME_AVERAGING= POINTWISE
%
% Type of time period over which the averaging will be applied.
% (FLOW_TIMESCALE, TURB_TIMESCALE, MAX_TURB_TIMESCALE)
AVERAGING_PERIOD= FLOW_TIMESCALE
%
% Number of time periods over which to average (can be a non-integer)
NUM_AVERAGING_PERIODS= 100000000.0
%
% Time at which to begin runtime averaging
AVERAGING_START_TIME= 0.00
